/batch
/config,noeldb,1     ! force off writing results to database
*get,_wallstrt,active,,time,wall
! ANSYS input file written by Workbench version 2024 R1
! File used for geometry attach: C:\Users\Prash\AppData\Local\Temp\crank_hw.tmp\crank_hw_files\dp0\SYS\DM\SYS.agdb
/title,crank_hw--Static Structural (A5)
! ****** Begin Custom Load Command Snippet ******
/COM, ACT Extensions:
/COM,     LSDYNA, 2024.1
/COM,     5f463412-bd3e-484b-87e7-cbc0a665e474, wbex
/COM,/COM,     ANSYSMotion, 2024.1
/COM,     20180725-3f81-49eb-9f31-41364844c769, wbex
/COM,
! ****** End   Custom Load Command Snippet ******
*DIM,_wb_ProjectScratch_dir,string,248
_wb_ProjectScratch_dir(1) = 'C:\Users\Prash\AppData\Local\Temp\crank_hw.tmp\_ProjectScratch\Scr12C7\'
*DIM,_wb_SolverFiles_dir,string,248
_wb_SolverFiles_dir(1) = 'C:\Users\Prash\AppData\Local\Temp\crank_hw.tmp\crank_hw_files\dp0\SYS\MECH\'
*DIM,_wb_userfiles_dir,string,248
_wb_userfiles_dir(1) = 'C:\Users\Prash\AppData\Local\Temp\crank_hw.tmp\crank_hw_files\user_files\'
/com,--- Data in consistent BIN units. See Solving Units in the help system for more information.
/units,BIN
/nopr
/wb,file,start              !  signify a WB generated input file
/prep7
! Turn off shape checking because checks already performed inside WB mesher.
! See help system for more information.
SHPP,OFF,,NOWARN
/nolist
etcon,set             ! allow ANSYS to choose best KEYOP's for 180x elements, resets any applicable keyopt to MAPDL defaults
/com,*********** Nodes for the whole assembly ***********
nblock,3,,7349
(1i9,3e20.9e3)
        1     6.692913413E+00    -2.500000000E-01     0.000000000E+00
        2     6.561089623E+00    -3.263897240E-01     0.000000000E+00
        3     6.835258079E+00    -3.250237019E-01     0.000000000E+00
        4     6.705967251E+00    -3.905269550E-01     0.000000000E+00
        5     6.692913413E+00    -2.500000000E-01     1.250000000E-01
        6     6.561162652E+00    -3.264621918E-01     1.249999985E-01
        7     6.835321728E+00    -3.249774302E-01     1.249999985E-01
        8     6.705925436E+00    -3.905681601E-01     1.249999985E-01
        9     7.126847422E+00    -2.482591666E-01     0.000000000E+00
       10     7.184589389E+00    -9.039223692E-02     0.000000000E+00
       11     7.000696367E+00    -1.699799255E-01     0.000000000E+00
       12     7.081771922E+00    -5.838099644E-02     0.000000000E+00
       13     7.126960518E+00    -2.481996919E-01     1.250000000E-01
       14     7.184709292E+00    -9.020413624E-02     1.250000000E-01
       15     7.000827345E+00    -1.698769845E-01     1.249999985E-01
       16     7.081889555E+00    -5.829212624E-02     1.249999985E-01
       17     6.868489004E+00     1.779696672E-01     0.000000000E+00
       18     7.016683562E+00     1.652318168E-01     0.000000000E+00
       19     6.823897287E+00     3.301105328E-01     0.000000000E+00
       20     6.960791635E+00     2.896289571E-01     0.000000000E+00
! ... 6662 like lines cut
/wb,elem,start            !  set before creation of elements
/com,*********** Elements for Body 1 "Solid" ***********
et,1,186
keyo,1,2,1          ! set full integration on SOLID186
eblock,19,solid,,1190
(19i9)
        1        1        1        1        0        0        0        0       20        0        1     1500     1203     1202     1497     1843     1546     1545     1840
     5833     4939     5808     5817     1855     5917     6664     6672     6671     5918     5916     6663
        1        1        1        1        0        0        0        0       20        0        2     1184     1504     1289     1181     1527     1847     1632     1524
     5832     5831     5793     4893     2042     6681     6652     5879     5878     6680     6131     5872
        1        1        1        1        0        0        0        0       20        0        3     1504     1503     1290     1289     1847     1846     1633     1632
     5830     5828     5168     5831     2043     6679     6133     6681     6680     6678     6134     6131
        1        1        1        1        0        0        0        0       20        0        4     1503     1502     1220     1290     1846     1845     1563     1633
     5827     5825     5792     5828     2036     6677     6651     6679     6678     6676     5962     6134
        1        1        1        1        0        0        0        0       20        0        5     1502     1198     1197     1220     1845     1541     1540     1563
     5824     4926     4996     5825     2037     5906     5963     6677     6676     5907     5905     5962
        1        1        1        1        0        0        0        0       20        0        6     1169     1501     1238     1171     1512     1844     1581     1514
     5822     5821     5037     4858     2034     6675     6002     5848     5847     6674     6003     5849
        1        1        1        1        0        0        0        0       20        0        7     1501     1499     1498     1238     1844     1842     1841     1581
     5820     5818     5813     5821     2035     6673     6669     6675     6674     6670     6666     6003
        1        1        1        1        0        0        0        0       20        0        8     1499     1500     1497     1498     1842     1843     1840     1841
     5815     5817     5811     5818     1854     6672     6667     6673     6670     6671     6663     6666
        1        1        1        1        0        0        0        0       20        0        9     1170     1171     1237     1194     1513     1514     1580     1537
     4860     5036     5805     4922     5850     6001     6662     5902     5851     5849     6000     5898
        1        1        1        1        0        0        0        0       20        0       10     1238     1498     1495     1236     1581     1841     1838     1579
     5813     5812     5799     5039     6669     6668     6657     6004     6003     6666     6654     5998
! ... 2361 like lines cut
!Material Id = {1601F0CB-AB8B-4EB3-96E4-014A3B00369A}
/wb,elem,end               !  done creating elements
/com,*********** Send User Defined Coordinate System(s) ***********
csys,0
toffst,459.67,  ! Temperature offset from absolute zero
/com,*********** Set Reference Temperature ***********
tref,71.6
/wb,mat,start              !  starting to send materials
/com,*********** Send Materials ***********
MP,EX,1,9999999.99889292,	! slinch s^-2 in^-1
MP,NUXY,1,0.33,
MP,UVID,1,13c9d0e5-68cb-48ab-9f60-707e53484fae

/wb,mat,end                !  done sending materials
!************************* Model Summary ********************
!Solid,	Al,	matid,	1
!************************* End Model Summary ********************
! get the diagonal of the bounding box. Needed later for other things
*get,_xmin,node,,mnloc,x
*get,_ymin,node,,mnloc,y
*get,_zmin,node,,mnloc,z
*get,_xmax,node,,mxloc,x
*get,_ymax,node,,mxloc,y
*get,_zmax,node,,mxloc,z
_ASMDIAG=(_xmax-_xmin)*(_xmax-_xmin)+(_ymax-_ymin)*(_ymax-_ymin)+(_zmax-_zmin)*(_zmax-_zmin)
_ASMDIAG=SQRT(_ASMDIAG)
/wb,contact,start          !  starting to send contact
/wb,contact,end            !  done creating contacts
/golist
/wb,load,start             !  starting to send loads
/com,*********** Fixed Supports ***********
CMBLOCK,_FIXEDSU,NODE,      336
(8i10)
        80        84        88        90        91        92        95        96
       100       102       103       104       105       106       107       108
       121       122       123       124       125       126       127       128
       129       130       131       132       134       137       149       152
       153       155       159       162       789       790       791       792
       793       794       795       796       797       798       799       800
       802       806       807       808       812       813       814       815
       822       823       824       825       826       827       829       837
       838       842      1156      1157      1158      1159      1160      1161
      1163      1167      1168      1169      1173      1174      1175      1176
      1183      1184      1185      1186      1187      1188      1190      1198
      1199      1203      1499      1500      1501      1502      1503      1504
      1506      1510      1511      1512      1516      1517      1518      1519
      1526      1527      1528      1529      1530      1531      1533      1541
      1542      1546      1842      1843      1844      1845      1846      1847
      1848      1849      1850      1851      1852      1853      1854      1855
      1856      1857      2020      2021      2022      2023      2024      2025
      2026      2027      2028      2029      2030      2031      2032      2033
      2034      2035      2036      2037      2038      2039      2040      2041
      2042      2043      2044      2045      2046      2047      2048      2049
! ... 22 like lines cut

cmsel,s,_FIXEDSU
d,all,all
nsel,all
/com,*********** Define Force Using Surface Effect Elements ***********
local,12,0,0.,0.,0.,0.,0.,0.
csys,0
et,2,154
mat,2
eblock,10,,,8
(15i9)
     2399        2        2        2       12       45       43       44       46     2243     2167     2245     2177
     2400        2        2        2       12        5        1       43       45     2179     2166     2243     2176
     2401        2        2        2       12       55       51       75       76     2260     2169     2301     2171
     2402        2        2        2       12       46       44       51       55     2245     2168     2260     2170
     2403        2        2        2       12       64       63        1        5     2278     2163     2179     2173
     2404        2        2        2       12       34       33       63       64     2231     2162     2278     2172
     2405        2        2        2       12       21       17       33       34     2202     2165     2231     2175
     2406        2        2        2       12       76       75       17       21     2301     2164     2202     2174
-1
esel,s,type,,2
keyop,2,2,1                ! Apply load in local coordinate system
keyop,2,7,1                ! Use original area so load is constant in large deformation
esel,all
/gst,on,on
fini
*get,_numnode,node,0,count
*get,_numelem,elem,0,count
*get, _MAXELEMNUM, elem, 0, NUM, MAX
*get, _MAXNODENUM, node, 0, NUM, MAX
*get, _MAXELEMTYPE, etyp, 0, NUM, MAX
*get, _MAXREALCONST, rcon, 0, NUM, MAX
/go
/wb,load,end               !  done creating loads
/com,--- Number of total nodes = %_numnode%
/com,--- Number of contact elements = 8
/com,--- Number of spring elements = 0
/com,--- Number of bearing elements = 0
/com,--- Number of solid elements = 1190
/com,--- Number of condensed parts = 0
/com,--- Number of total elements = %_numelem%
*get,_wallbsol,active,,time,wall
/com,****************************************************************************
/com,*************************    SOLUTION       ********************************
/com,****************************************************************************
/solu
antype,0                   ! static analysis
_thickRatio=  1     ! Ratio of thick parts in the model
eqsl,pcg,1e-8,,,,,,1
cntr,print,1               ! print out contact info and also make no initial contact an error
cncheck,dmp		!	Enable program controlled contact splitting for distributed memory parallel run
dmpoption,emat,no             ! Don't combine emat file for DANSYS
dmpoption,esav,no             ! Don't combine esav file for DANSYS
nldiag,cont,iter           ! print out contact info each equilibrium iteration
rescontrol,,none                 ! Do not keep any restart files
/com,****************************************************
/com,******************* SOLVE FOR LS 1 OF 1 ****************
esel,s,type,,2
nsle
sfe,all,1,pres,1,0.
sfe,all,2,pres,1,509.490909691122
sfe,all,3,pres,1,0.
nsel,all
esel,all
/nopr
/gopr
nsub,1,1,1
time,1.
outres,erase
outres,all,none
outres,nsol,all,
outres,rsol,all
outres,eangl,all
outres,etmp,all
outres,veng,all
outres,strs,all,
outres,bkstr,all,
outres,epel,all,
outres,eppl,all,
outres,cont,all,
outres,nldat,all,
stabilize,off                   ! Stabilization turned OFF by user
! *********** WB SOLVE COMMAND ***********
! check interactive state
*get,ANSINTER_,active,,int
*if,ANSINTER_,ne,0,then
/eof
*endif
solve
/com *************** Write FE CONNECTORS ********* 
CEWRITE,file,ce,,INTE
/com,****************************************************
/com,*************** FINISHED SOLVE FOR LS 1 *************
*get,_wallasol,active,,time,wall
/nopr
*get,_numnode,node,0,count
*get,_numelem,elem,0,count
*get, _MAXELEMNUM, elem, 0, NUM, MAX
*get, _MAXNODENUM, node, 0, NUM, MAX,,,INTERNAL
*get, _MAXELEMTYPE, etyp, 0, NUM, MAX
*get, _MAXREALCONST, rcon, 0, NUM, MAX
*get,_NSOLTHREADS,active,0,ntfs
*get,_NSOLPROCESSES,active,0,npfs
/gopr
*get,_PCGITER,active,,solu,cgiter
/post1
xmlo,ENCODING,ISO-8859-1
xmlo,parm
/xml,parm,xml
fini
/gopr
*get,_walldone,active,,time,wall
_preptime=(_wallbsol-_wallstrt)*3600
_solvtime=(_wallasol-_wallbsol)*3600
_posttime=(_walldone-_wallasol)*3600
_totaltim=(_walldone-_wallstrt)*3600
*get,_dlbratio,active,0,solu,dlbr
*get,_combtime,active,0,solu,comb
*get,_ssmode,active,0,solu,ssmm
*get,_ndofs,active,0,solu,ndof
*get,_sol_end_time,active,0,set,time
*if,_sol_end_time,eq,1.000000,then
/fclean				!clean distributed files
*endif
/com,--- Total number of nodes = %_numnode%
/com,--- Total number of elements = %_numelem%
/com,--- Element load balance ratio = %_dlbratio%
/com,--- Time to combine distributed files = %_combtime%
/com,--- Sparse memory mode = %_ssmode%
/com,--- Number of DOF = %_ndofs%
/wb,file,end               ! done with WB generated input
