/batch
/config,noeldb,1     ! force off writing results to database
*get,_wallstrt,active,,time,wall
! ANSYS input file written by Workbench version 2024 R1
! File used for geometry attach: C:\Users\Prash\AppData\Local\Temp\crank_hw.tmp\crank_hw_files\dp0\SYS\DM\SYS.agdb
/title,Crank Shaft HW--Static Structural (B5)
! ****** Begin Custom Load Command Snippet ******
/COM, ACT Extensions:
/COM,     LSDYNA, 2024.1
/COM,     5f463412-bd3e-484b-87e7-cbc0a665e474, wbex
/COM,/COM,     ANSYSMotion, 2024.1
/COM,     20180725-3f81-49eb-9f31-41364844c769, wbex
/COM,
! ****** End   Custom Load Command Snippet ******
*DIM,_wb_ProjectScratch_dir,string,248
_wb_ProjectScratch_dir(1) = 'B:\COURSES\COMPUTER SCIENCE\COURSERA\ANSYS\CRANK SHAFT\HW\_ProjectScratch\Scr05CD\'
*DIM,_wb_SolverFiles_dir,string,248
_wb_SolverFiles_dir(1) = 'B:\COURSES\COMPUTER SCIENCE\COURSERA\ANSYS\CRANK SHAFT\HW\Crank Shaft HW_files\dp0\SYS-1\MECH\'
*DIM,_wb_userfiles_dir,string,248
_wb_userfiles_dir(1) = 'B:\COURSES\COMPUTER SCIENCE\COURSERA\ANSYS\CRANK SHAFT\HW\Crank Shaft HW_files\user_files\'
/com,--- Data in consistent BIN units. See Solving Units in the help system for more information.
/units,BIN
/nopr
/wb,file,start              !  signify a WB generated input file
/prep7
! Turn off shape checking because checks already performed inside WB mesher.
! See help system for more information.
SHPP,OFF,,NOWARN
/nolist
etcon,set             ! allow ANSYS to choose best KEYOP's for 180x elements, resets any applicable keyopt to MAPDL defaults
/com,*********** Nodes for the whole assembly ***********
nblock,3,,32091
(1i9,3e20.9e3)
        1     7.108183898E+00    -1.102621052E-01     0.000000000E+00
        2     7.171770064E+00    -1.436819518E-01     0.000000000E+00
        3     7.105644488E+00    -3.637101495E-02     0.000000000E+00
        4     7.190141569E+00    -5.207519424E-02     0.000000000E+00
        5     7.108204910E+00    -1.102571305E-01     6.250000045E-02
        6     7.171799268E+00    -1.436747088E-01     6.250000000E-02
        7     7.105663084E+00    -3.636039203E-02     6.250000027E-02
        8     7.190169799E+00    -5.205674184E-02     6.250000000E-02
        9     6.942913288E+00    -3.127726214E-17     0.000000000E+00
       10     7.047273112E+00    -1.495429809E-01     0.000000000E+00
       11     6.942913386E+00    -6.610911491E-19     6.249999924E-02
       12     7.047288330E+00    -1.495458182E-01     6.250000032E-02
       13     7.056070649E+00     1.687458386E-01     0.000000000E+00
       14     6.924609642E+00     9.389805669E-02     0.000000000E+00
       15     7.083469803E+00     9.166458593E-02     0.000000000E+00
       16     7.055998813E+00     1.689634786E-01     6.250000155E-02
       17     6.924379266E+00     9.446520435E-02     6.250000215E-02
       18     7.083477404E+00     9.168538089E-02     6.250000034E-02
       19     7.174773798E+00     1.332630858E-01     0.000000000E+00
       20     7.141564678E+00     2.205938200E-01     0.000000000E+00
! ... 29155 like lines cut
/wb,elem,start            !  set before creation of elements
/com,*********** Elements for Body 1 "Solid" ***********
et,1,186
keyo,1,2,1          ! set full integration on SOLID186
eblock,19,solid,,5862
(19i9)
        1        1        1        1        0        0        0        0       20        0        1     5695     6748     6477     5810     6753     7806     7535     6868
    26347    26346    26299    23557     8173    29174    29143    26625    26356    29173    28554    26626
        1        1        1        1        0        0        0        0       20        0        2     6748     6747     5802     6477     7806     7805     6860     7535
    26345    26343    25488    26346     8174    29172    28555    29174    29173    29171    26607    28554
        1        1        1        1        0        0        0        0       20        0        3     6747     6746     5806     5802     7805     7804     6864     6860
    26342    26340    23547    26343     8171    29170    26615    29172    29171    29169    26616    26607
        1        1        1        1        0        0        0        0       20        0        4     6746     6745     6314     5806     7804     7803     7372     6864
    26339    26337    24995    26340     8172    29168    28062    29170    29169    29167    28063    26616
        1        1        1        1        0        0        0        0       20        0        5     6745     6744     6470     6314     7803     7802     7528     7372
    26336    26334    25464    26337     8169    29166    28531    29168    29167    29165    28532    28063
        1        1        1        1        0        0        0        0       20        0        6     6744     6743     6476     6470     7802     7801     7534     7528
    26333    26331    25486    26334     8170    29164    28553    29166    29165    29163    28550    28532
        1        1        1        1        0        0        0        0       20        0        7     6743     5691     5693     6476     7801     6749     6751     7534
    26330    23284    25484    26331     7814    26355    28551    29164    29163    26348    26354    28550
        1        1        1        1        0        0        0        0       20        0        8     6736     6742     6454     6458     7794     7800     7512     7516
    26328    26327    25426    26308     7813    29162    28493    29149    29148    29161    28480    28492
        1        1        1        1        0        0        0        0       20        0        9     6742     6741     6455     6454     7800     7799     7513     7512
    26326    26324    25415    26327     8185    29160    28482    29162    29161    29159    28483    28480
        1        1        1        1        0        0        0        0       20        0       10     6741     6740     6457     6455     7799     7798     7515     7513
    26323    26321    25424    26324     8186    29158    28491    29160    29159    29157    28488    28483
! ... 11705 like lines cut
!Material Id = {56F3D1C1-7FAA-4BC3-AC8C-64B6D5F84891}
/wb,elem,end               !  done creating elements
/com,*********** Send User Defined Coordinate System(s) ***********
local,12,0,3.34645669291339,0.,0.375,0.,0.,0.
local,13,0,3.34645669291339,0.452755905511811,0.375,0.,0.,0.
csys,0
toffst,459.67,  ! Temperature offset from absolute zero
/com,*********** Set Reference Temperature ***********
tref,71.6
/wb,mat,start              !  starting to send materials
/com,*********** Send Materials ***********
MP,EX,1,9999999.99889292,	! slinch s^-2 in^-1
MP,NUXY,1,0.33,
MP,UVID,1,13c9d0e5-68cb-48ab-9f60-707e53484fae

/wb,mat,end                !  done sending materials
!************************* Model Summary ********************
!Solid,	Al,	matid,	1
!************************* End Model Summary ********************
! get the diagonal of the bounding box. Needed later for other things
*get,_xmin,node,,mnloc,x
*get,_ymin,node,,mnloc,y
*get,_zmin,node,,mnloc,z
*get,_xmax,node,,mxloc,x
*get,_ymax,node,,mxloc,y
*get,_zmax,node,,mxloc,z
_ASMDIAG=(_xmax-_xmin)*(_xmax-_xmin)+(_ymax-_ymin)*(_ymax-_ymin)+(_zmax-_zmin)*(_zmax-_zmin)
_ASMDIAG=SQRT(_ASMDIAG)
/wb,contact,start          !  starting to send contact
/wb,contact,end            !  done creating contacts
/golist
/wb,load,start             !  starting to send loads
/com,*********** Fixed Supports ***********
CMBLOCK,_FIXEDSU,NODE,      720
(8i10)
       265       269       273       275       281       282       283       284
       285       286       503       504      2387      2388      2389      2390
      2391      2392      2393      2394      2395      2396      2397      2398
      2399      2401      2403      2404      2405      2406      2407      2408
      2409      2410      2411      2412      2413      2414      2415      2416
      2417      2418      2419      2420      2421      2422      2423      2424
      2425      2426      2427      2428      2429      2430      2431      2432
      2433      2434      2435      2436      2437      2438      2439      2440
      2441      2442      2443      2444      2445      2446      2447      2448
      2449      2453      2457      2458      2459      2568      3510      3511
      3512      3513      3514      3515      3516      3518      3519      3520
      3521      3522      3523      3524      3525      3526      3527      3528
      3529      3530      3531      3532      3533      3534      3535      3536
      3537      3538      3539      3540      3541      3545      3549      3550
      3551      3660      4602      4603      4604      4605      4606      4607
      4608      4610      4611      4612      4613      4614      4615      4616
      4617      4618      4619      4620      4621      4622      4623      4624
      4625      4626      4627      4628      4629      4630      4631      4632
      4633      4637      4641      4642      4643      4752      5660      5661
      5662      5663      5664      5665      5666      5668      5669      5670
! ... 70 like lines cut

cmsel,s,_FIXEDSU
d,all,all
nsel,all
/com,*********** Define Force Using Surface Effect Elements ***********
local,14,0,0.,0.,0.,0.,0.,0.
csys,0
et,2,154
mat,2
eblock,10,,,32
(15i9)
     9533        2        2        2       14      228      105      101      226     8915     8622     8911     8426
     9534        2        2        2       14      230      108      105      228     8919     8629     8915     8425
     9535        2        2        2       14      231      110      108      230     8922     8635     8919     8424
     9536        2        2        2       14      232      112      110      231     8924     8639     8922     8423
     9537        2        2        2       14      105      103       99      101     8621     8406     8614     8622
     9538        2        2        2       14      108      107      103      105     8628     8405     8621     8629
     9539        2        2        2       14      110      109      107      108     8634     8404     8628     8635
     9540        2        2        2       14      112      111      109      110     8638     8403     8634     8639
     9541        2        2        2       14      218       85       81      216     8894     8586     8890     8414
     9542        2        2        2       14      220       89       85      218     8898     8593     8894     8413
     9543        2        2        2       14      222       93       89      220     8902     8600     8898     8412
     9544        2        2        2       14      226      101       93      222     8911     8615     8902     8411
     9545        2        2        2       14       85       83       79       81     8585     8410     8578     8586
     9546        2        2        2       14       89       87       83       85     8592     8409     8585     8593
     9547        2        2        2       14       93       91       87       89     8599     8408     8592     8600
     9548        2        2        2       14      101       99       91       93     8614     8407     8599     8615
     9549        2        2        2       14      233      114      112      232     8926     8643     8924     8418
     9550        2        2        2       14      234      117      114      233     8928     8647     8926     8417
     9551        2        2        2       14      206       61      117      234     8868     8653     8928     8416
     9552        2        2        2       14      181       11       61      206     8808     8541     8868     8415
! ... 13 like lines cut
esel,s,type,,2
keyop,2,2,1                ! Apply load in local coordinate system
keyop,2,7,1                ! Use original area so load is constant in large deformation
esel,all
/gst,on,on
fini
*get,_numnode,node,0,count
*get,_numelem,elem,0,count
*get, _MAXELEMNUM, elem, 0, NUM, MAX
*get, _MAXNODENUM, node, 0, NUM, MAX
*get, _MAXELEMTYPE, etyp, 0, NUM, MAX
*get, _MAXREALCONST, rcon, 0, NUM, MAX
/go
/wb,load,end               !  done creating loads
/com,--- Number of total nodes = %_numnode%
/com,--- Number of contact elements = 32
/com,--- Number of spring elements = 0
/com,--- Number of bearing elements = 0
/com,--- Number of solid elements = 5862
/com,--- Number of condensed parts = 0
/com,--- Number of total elements = %_numelem%
*get,_wallbsol,active,,time,wall
/com,****************************************************************************
/com,*************************    SOLUTION       ********************************
/com,****************************************************************************
/solu
antype,0                   ! static analysis
_thickRatio=  1     ! Ratio of thick parts in the model
eqsl,pcg,1e-8,,,,,,1
cntr,print,1               ! print out contact info and also make no initial contact an error
cncheck,dmp		!	Enable program controlled contact splitting for distributed memory parallel run
dmpoption,emat,no             ! Don't combine emat file for DANSYS
dmpoption,esav,no             ! Don't combine esav file for DANSYS
nldiag,cont,iter           ! print out contact info each equilibrium iteration
rescontrol,,none                 ! Do not keep any restart files
/com,****************************************************
/com,******************* SOLVE FOR LS 1 OF 1 ****************
esel,s,type,,2
nsle
sfe,all,1,pres,1,0.
sfe,all,2,pres,1,509.308325858995
sfe,all,3,pres,1,0.
nsel,all
esel,all
/nopr
/gopr
nsub,1,1,1
time,1.
outres,erase
outres,all,none
outres,nsol,all,
outres,rsol,all
outres,eangl,all
outres,etmp,all
outres,veng,all
outres,strs,all,
outres,bkstr,all,
outres,epel,all,
outres,eppl,all,
outres,cont,all,
outres,nldat,all,
stabilize,off                   ! Stabilization turned OFF by user
! *********** WB SOLVE COMMAND ***********
! check interactive state
*get,ANSINTER_,active,,int
*if,ANSINTER_,ne,0,then
/eof
*endif
solve
/com *************** Write FE CONNECTORS ********* 
CEWRITE,file,ce,,INTE
/com,****************************************************
/com,*************** FINISHED SOLVE FOR LS 1 *************
*get,_wallasol,active,,time,wall
/nopr
*get,_numnode,node,0,count
*get,_numelem,elem,0,count
*get, _MAXELEMNUM, elem, 0, NUM, MAX
*get, _MAXNODENUM, node, 0, NUM, MAX,,,INTERNAL
*get, _MAXELEMTYPE, etyp, 0, NUM, MAX
*get, _MAXREALCONST, rcon, 0, NUM, MAX
*get,_NSOLTHREADS,active,0,ntfs
*get,_NSOLPROCESSES,active,0,npfs
/gopr
*get,_PCGITER,active,,solu,cgiter
/post1
xmlo,ENCODING,ISO-8859-1
xmlo,parm
/xml,parm,xml
fini
/gopr
*get,_walldone,active,,time,wall
_preptime=(_wallbsol-_wallstrt)*3600
_solvtime=(_wallasol-_wallbsol)*3600
_posttime=(_walldone-_wallasol)*3600
_totaltim=(_walldone-_wallstrt)*3600
*get,_dlbratio,active,0,solu,dlbr
*get,_combtime,active,0,solu,comb
*get,_ssmode,active,0,solu,ssmm
*get,_ndofs,active,0,solu,ndof
*get,_sol_end_time,active,0,set,time
*if,_sol_end_time,eq,1.000000,then
/fclean				!clean distributed files
*endif
/com,--- Total number of nodes = %_numnode%
/com,--- Total number of elements = %_numelem%
/com,--- Element load balance ratio = %_dlbratio%
/com,--- Time to combine distributed files = %_combtime%
/com,--- Sparse memory mode = %_ssmode%
/com,--- Number of DOF = %_ndofs%
/wb,file,end               ! done with WB generated input
