/batch
/config,noeldb,1     ! force off writing results to database
*get,_wallstrt,active,,time,wall
! ANSYS input file written by Workbench version 2024 R1
! File used for geometry attach: C:\Users\Prash\AppData\Local\Temp\WB_LUFFY_11208_2\wbnew_files\dp0\SYS\DM\SYS.dsco
/title,wbnew--Static Structural (A5)
! ****** Begin Custom Load Command Snippet ******
/COM, ACT Extensions:
/COM,     LSDYNA, 2024.1
/COM,     5f463412-bd3e-484b-87e7-cbc0a665e474, wbex
/COM,/COM,     ANSYSMotion, 2024.1
/COM,     20180725-3f81-49eb-9f31-41364844c769, wbex
/COM,
! ****** End   Custom Load Command Snippet ******
*DIM,_wb_ProjectScratch_dir,string,248
_wb_ProjectScratch_dir(1) = 'C:\Users\Prash\AppData\Local\Temp\WB_LUFFY_11208_2\_ProjectScratch\Scr9D21\'
*DIM,_wb_SolverFiles_dir,string,248
_wb_SolverFiles_dir(1) = 'C:\Users\Prash\AppData\Local\Temp\WB_LUFFY_11208_2\wbnew_files\dp0\SYS\MECH\'
*DIM,_wb_userfiles_dir,string,248
_wb_userfiles_dir(1) = 'C:\Users\Prash\AppData\Local\Temp\WB_LUFFY_11208_2\wbnew_files\user_files\'
/com,--- Data in consistent BIN units. See Solving Units in the help system for more information.
/units,BIN
/nopr
/wb,file,start              !  signify a WB generated input file
/prep7
! Turn off shape checking because checks already performed inside WB mesher.
! See help system for more information.
SHPP,OFF,,NOWARN
/nolist
etcon,set             ! allow ANSYS to choose best KEYOP's for 180x elements, resets any applicable keyopt to MAPDL defaults
/com,*********** Nodes for the whole assembly ***********
nblock,3,,6976
(1i9,3e20.9e3)
        1     6.942913386E+00     1.968017829E-08     1.250000000E-01
        2     7.061726057E+00     4.104468919E-02     1.250000000E-01
        3     7.023775098E+00    -1.426498344E-01     1.250000000E-01
        4     7.092494824E+00    -6.407054624E-02     1.250000000E-01
        5     6.942913386E+00     1.968017829E-08     0.000000000E+00
        6     7.061648438E+00     4.114093188E-02     0.000000000E+00
        7     7.023676626E+00    -1.427090273E-01     0.000000000E+00
        8     7.092388488E+00    -6.412534569E-02     0.000000000E+00
        9     7.185479467E+00    -8.589910205E-02     1.250000000E-01
       10     7.129210670E+00    -2.442226032E-01     1.250000000E-01
       11     7.185339478E+00    -8.608772137E-02     0.000000000E+00
       12     7.129076084E+00    -2.442830014E-01     0.000000000E+00
       13     7.186247875E+00     8.137003095E-02     1.250000000E-01
       14     7.186101621E+00     8.158160874E-02     0.000000000E+00
       15     7.131422077E+00     2.402293230E-01     1.250000000E-01
       16     7.027632730E+00     1.467033522E-01     1.250000000E-01
       17     7.131286084E+00     2.402928623E-01     0.000000000E+00
       18     7.027496655E+00     1.468219455E-01     0.000000000E+00
       19     7.027059727E+00     3.719492201E-01     1.250000000E-01
       20     6.868736648E+00     1.777250133E-01     1.250000000E-01
! ... 6323 like lines cut
/wb,elem,start            !  set before creation of elements
/com,*********** Elements for Body 1 "Bike Crank 2 rev 2011 x.375\Bike Crank 2 rev 2011 x.375" ***********
et,1,186
keyo,1,2,1          ! set full integration on SOLID186
eblock,19,solid,,1123
(19i9)
        1        1        1        1        0        0        0        0       20        0        1     1149     1430     1141     1139     1475     1756     1467     1465
     5542     5541     4682     4709     1976     6342     5617     5639     5638     6341     5618     5616
        1        1        1        1        0        0        0        0       20        0        2     1430     1429     1424     1141     1756     1755     1750     1467
     5540     5538     5516     5541     1977     6340     6324     6342     6341     6339     6325     5618
        1        1        1        1        0        0        0        0       20        0        3     1429     1428     1425     1424     1755     1754     1751     1750
     5537     5535     5522     5538     1978     6338     6330     6340     6339     6337     6327     6325
        1        1        1        1        0        0        0        0       20        0        4     1428     1427     1182     1425     1754     1753     1508     1751
     5534     5532     5520     5535     1971     6336     6328     6338     6337     6335     5715     6327
        1        1        1        1        0        0        0        0       20        0        5     1427     1108     1106     1182     1753     1434     1432     1508
     5531     4604     4805     5532     1972     5546     5726     6336     6335     5547     5545     5715
        1        1        1        1        0        0        0        0       20        0        6     1146     1426     1135     1133     1472     1752     1461     1459
     5529     5528     4669     4699     1968     6334     5604     5632     5631     6333     5605     5603
        1        1        1        1        0        0        0        0       20        0        7     1426     1163     1164     1135     1752     1489     1490     1461
     5527     4750     4876     5528     1969     5674     5797     6334     6333     5675     5673     5605
        1        1        1        1        0        0        0        0       20        0        8     1127     1147     1423     1150     1453     1473     1749     1476
     5525     5524     5514     4714     1987     6332     6322     5643     5590     5635     6319     5641
        1        1        1        1        0        0        0        0       20        0        9     1147     1142     1422     1423     1473     1468     1748     1749
     4702     5523     5512     5524     5634     6331     6320     6332     5635     5622     6316     6319
        1        1        1        1        0        0        0        0       20        0       10     1142     1138     1421     1422     1468     1464     1747     1748
     4691     5515     5509     5523     5626     6323     6317     6331     5622     5614     6313     6316
! ... 2227 like lines cut
!Material Id = {5192B772-0AC9-42AC-8219-18939F68FA5A}
/wb,elem,end               !  done creating elements
/com,*********** Send User Defined Coordinate System(s) ***********
csys,0
toffst,459.67,  ! Temperature offset from absolute zero
/com,*********** Set Reference Temperature ***********
tref,71.6
/wb,mat,start              !  starting to send materials
/com,*********** Send Materials ***********
MP,EX,1,9999999.99889292,	! slinch s^-2 in^-1
MP,NUXY,1,0.33,
MP,UVID,1,ab875c10-dd33-4c46-8556-055bd504cfc9

/wb,mat,end                !  done sending materials
!************************* Model Summary ********************
!Bike Crank 2 rev 2011 x.375\Bike Crank 2 rev 2011 x.375,	AL,	matid,	1
!************************* End Model Summary ********************
! get the diagonal of the bounding box. Needed later for other things
*get,_xmin,node,,mnloc,x
*get,_ymin,node,,mnloc,y
*get,_zmin,node,,mnloc,z
*get,_xmax,node,,mxloc,x
*get,_ymax,node,,mxloc,y
*get,_zmax,node,,mxloc,z
_ASMDIAG=(_xmax-_xmin)*(_xmax-_xmin)+(_ymax-_ymin)*(_ymax-_ymin)+(_zmax-_zmin)*(_zmax-_zmin)
_ASMDIAG=SQRT(_ASMDIAG)
/wb,contact,start          !  starting to send contact
/wb,contact,end            !  done creating contacts
/golist
/wb,load,start             !  starting to send loads
/com,*********** Fixed Supports ***********
CMBLOCK,_FIXEDSU,NODE,      336
(8i10)
        75        76        79        80        81        83        85        86
        96        98       109       110       111       112       113       114
       115       116       117       118       119       121       151       152
       153       154       155       156       157       158       159       160
       161       162       167       170       193       195       751       752
       753       754       755       756       757       758       759       760
       763       764       765       767       773       779       780       781
       782       783       784       800       801       802       803       804
       805       809       821      1100      1101      1102      1103      1104
      1107      1108      1109      1111      1117      1123      1124      1125
      1126      1127      1128      1144      1145      1146      1147      1148
      1149      1153      1163      1426      1427      1428      1429      1430
      1433      1434      1435      1437      1443      1449      1450      1451
      1452      1453      1454      1470      1471      1472      1473      1474
      1475      1479      1489      1752      1753      1754      1755      1756
      1757      1758      1759      1760      1761      1762      1763      1764
      1765      1766      1955      1956      1957      1958      1959      1960
      1961      1962      1963      1964      1965      1966      1967      1968
      1969      1970      1971      1972      1973      1974      1975      1976
      1977      1978      1979      1980      1981      1982      1983      1984
! ... 22 like lines cut

cmsel,s,_FIXEDSU
d,all,all
nsel,all
/com,*********** Define Force Using Surface Effect Elements ***********
local,12,0,0.,0.,0.,0.,0.,0.
csys,0
et,2,154
mat,2
eblock,10,,,8
(15i9)
     2286        2        2        2       12       20       22        5        1     2118     2072     2084     2082
     2287        2        2        2       12       37       40       22       20     2145     2071     2118     2081
     2288        2        2        2       12       25       29       30       26     2128     2074     2126     2076
     2289        2        2        2       12        1        5       29       25     2084     2073     2128     2075
     2290        2        2        2       12       51       55       40       37     2170     2068     2145     2078
     2291        2        2        2       12       58       60       55       51     2175     2067     2170     2077
     2292        2        2        2       12       44       47       60       58     2161     2070     2175     2080
     2293        2        2        2       12       26       30       47       44     2126     2069     2161     2079
-1
esel,s,type,,2
keyop,2,2,1                ! Apply load in local coordinate system
keyop,2,7,1                ! Use original area so load is constant in large deformation
esel,all
/gst,on,on
fini
*get,_numnode,node,0,count
*get,_numelem,elem,0,count
*get, _MAXELEMNUM, elem, 0, NUM, MAX
*get, _MAXNODENUM, node, 0, NUM, MAX
*get, _MAXELEMTYPE, etyp, 0, NUM, MAX
*get, _MAXREALCONST, rcon, 0, NUM, MAX
/go
/wb,load,end               !  done creating loads
/com,--- Number of total nodes = %_numnode%
/com,--- Number of contact elements = 8
/com,--- Number of spring elements = 0
/com,--- Number of bearing elements = 0
/com,--- Number of solid elements = 1123
/com,--- Number of condensed parts = 0
/com,--- Number of total elements = %_numelem%
*get,_wallbsol,active,,time,wall
/com,****************************************************************************
/com,*************************    SOLUTION       ********************************
/com,****************************************************************************
/solu
antype,0                   ! static analysis
nlgeom,on                  ! Turn on Large Deformation Effects
_thickRatio=  1     ! Ratio of thick parts in the model
eqsl,pcg,1e-8,,,,,,1
cntr,print,1               ! print out contact info and also make no initial contact an error
cncheck,dmp		!	Enable program controlled contact splitting for distributed memory parallel run
dmpoption,emat,no             ! Don't combine emat file for DANSYS
dmpoption,esav,no             ! Don't combine esav file for DANSYS
nldiag,cont,iter           ! print out contact info each equilibrium iteration
rescontrol,define,last,last,,dele	   ! Program Controlled
/com,****************************************************
/com,******************* SOLVE FOR LS 1 OF 1 ****************
esel,s,type,,2
nsle
sfe,all,1,pres,1,0.
sfe,all,2,pres,1,509.490902666799
sfe,all,3,pres,1,0.
nsel,all
esel,all
/nopr
/gopr
autots,on                  ! Workbench Program Controlled automatic time stepping
nsub,1,10,1                ! due to presence of general nonlinear
time,1.
outres,erase
outres,all,none
outres,nsol,all,
outres,rsol,all
outres,eangl,all
outres,etmp,all
outres,veng,all
outres,strs,all,
outres,epel,all,
outres,eppl,all,
outres,cont,all,
! *********** WB SOLVE COMMAND ***********
! check interactive state
*get,ANSINTER_,active,,int
*if,ANSINTER_,ne,0,then
/eof
*endif
solve
/com *************** Write FE CONNECTORS ********* 
CEWRITE,file,ce,,INTE
/com,****************************************************
/com,*************** FINISHED SOLVE FOR LS 1 *************
*get,_wallasol,active,,time,wall
/nopr
*get,_numnode,node,0,count
*get,_numelem,elem,0,count
*get, _MAXELEMNUM, elem, 0, NUM, MAX
*get, _MAXNODENUM, node, 0, NUM, MAX,,,INTERNAL
*get, _MAXELEMTYPE, etyp, 0, NUM, MAX
*get, _MAXREALCONST, rcon, 0, NUM, MAX
*get,_NSOLTHREADS,active,0,ntfs
*get,_NSOLPROCESSES,active,0,npfs
/gopr
*get,_PCGITER,active,,solu,cgiter
/post1
xmlo,ENCODING,ISO-8859-1
xmlo,parm
/xml,parm,xml
fini
/gopr
*get,_walldone,active,,time,wall
_preptime=(_wallbsol-_wallstrt)*3600
_solvtime=(_wallasol-_wallbsol)*3600
_posttime=(_walldone-_wallasol)*3600
_totaltim=(_walldone-_wallstrt)*3600
*get,_dlbratio,active,0,solu,dlbr
*get,_combtime,active,0,solu,comb
*get,_ssmode,active,0,solu,ssmm
*get,_ndofs,active,0,solu,ndof
*get,_sol_end_time,active,0,set,time
*if,_sol_end_time,eq,1.000000,then
/fclean				!clean distributed files
*endif
/com,--- Total number of nodes = %_numnode%
/com,--- Total number of elements = %_numelem%
/com,--- Element load balance ratio = %_dlbratio%
/com,--- Time to combine distributed files = %_combtime%
/com,--- Sparse memory mode = %_ssmode%
/com,--- Number of DOF = %_ndofs%
/wb,file,end               ! done with WB generated input
